33
Energy: -668.514720929
N      -7.847769000000000      0.885130000000000      0.041642000000000
C      -6.426366000000000      0.852779000000000      0.176830000000000
C      -6.100678000000000      0.894400000000000      1.678481000000000
O      -6.817234000000000      1.517714000000000      2.439282000000000
C      -5.709058000000000      2.047393000000000     -0.562133000000000
C      -6.083951000000000      3.412394000000000      0.031332000000000
C      -5.554904000000000      4.501977000000000     -0.916084000000000
C      -5.971319000000000      5.937456000000000     -0.306715000000000
N      -5.540512000000000      6.948433000000000     -1.169290000000000
H      -8.375684000000000      1.131139000000000      0.871033000000000
C      -8.468906000000000      0.552364000000000     -1.137608000000000
N      -4.976867000000000      0.260017000000000      2.058220000000000
H      -4.500920000000000     -0.332482000000000      1.395100000000000
O      -7.813942000000000      0.302364000000000     -2.127395000000000
H      -4.586198000000000      7.291984000000000     -1.144547000000000
C      -4.566999000000000      0.214439000000000      3.454550000000000
H      -5.254653000000000     -0.401913000000000      4.046384000000000
H      -3.559536000000000     -0.205874000000000      3.511173000000000
H      -4.565516000000000      1.226759000000000      3.870922000000000
C      -9.983252000000000      0.493826000000000     -1.095365000000000
H     -10.372528000000001      0.714485000000000     -2.092571000000000
H     -10.282465000000000     -0.528348000000000     -0.828348000000000
H     -10.410818000000001      1.182593000000000     -0.358685000000000
H      -6.045379000000000     -0.053693000000000     -0.313469000000000
H      -4.625021000000000      1.885259000000000     -0.509239000000000
H      -6.018969000000000      1.963844000000000     -1.611724000000000
H      -5.657779000000000      3.539371000000000      1.033638000000000
H      -7.174710000000000      3.489159000000000      0.124354000000000
H      -4.462496000000000      4.481177000000000     -1.002624000000000
H      -5.994999000000000      4.416504000000000     -1.916088000000000
H      -5.484182000000000      6.025828000000000      0.670134000000000
H      -7.061804000000000      5.949048000000000     -0.213150000000000
H      -6.101841000000000      7.240154000000000     -1.962533000000000
