27
Energy: -7.227812417718500E+02
 N        -4.509479087211     -4.704327209537     -0.778492021389
 C        -3.068796019440     -4.724072630158     -0.778146197660
 C        -2.608014176448     -4.575762098399      0.684354486368
 O        -3.384968332138     -4.273681647735      1.570465322425
 C        -2.465940728583     -3.609143071301     -1.679121737583
 C        -2.781371901573     -2.231838273044     -1.200901537755
 H        -3.724059899723     -2.021272028025     -0.702279847752
 C        -1.915506356374     -1.079592906748     -1.396194792002
 O        -0.750744166226     -1.371372323925     -2.015295769850
 O        -2.187223142624      0.047772427152     -1.046075768547
 H        -4.945645155674     -4.464611414299      0.102608155688
 H        -2.726721086772     -5.687443385797     -1.180579425746
 C        -5.224022242033     -5.202761865588     -1.822051315909
 N        -1.293460007025     -4.781542269226      0.905594927486
 H        -0.262938916980     -0.543966017694     -2.101801235309
 H        -0.694582433880     -5.028324178864      0.134254942942
 O        -4.684162558004     -5.610242118826     -2.833337357282
 C        -6.735178578990     -5.218258539690     -1.648935555572
 H        -7.187606932528     -4.720633512684     -2.513388607529
 H        -7.070726664384     -6.261966483254     -1.650622235159
 H        -7.067974765014     -4.730904791350     -0.726826369024
 C        -0.716729913305     -4.616053040247      2.227958283947
 H        -1.221349483455     -5.269132302725      2.949211778738
 H         0.344371139807     -4.876853573710      2.184460841481
 H        -0.823018284763     -3.579642403583      2.570575038366
 H        -1.381982301265     -3.738112315498     -1.783369670691
 H        -2.892558175395     -3.768042725246     -2.684217212683
