28
Energy: -723.4376637109999
N      -4.447319000000000     -4.674796000000000     -0.738703000000000
C      -3.005271000000000     -4.681913000000000     -0.748472000000000
C      -2.531443000000000     -4.726800000000000      0.714693000000000
O      -3.283042000000000     -4.488523000000000      1.641805000000000
C      -2.409673000000000     -3.461149000000000     -1.495929000000000
H      -1.320785000000000     -3.574122000000000     -1.567936000000000
H      -2.814370000000000     -3.482148000000000     -2.515169000000000
C      -2.747220000000000     -2.121295000000000     -0.809857000000000
H      -3.829279000000000     -1.983493000000000     -0.735240000000000
H      -2.316873000000000     -2.095098000000000      0.200820000000000
C      -2.191837000000000     -0.945828000000000     -1.586505000000000
O      -0.848381000000000     -0.965590000000000     -1.632782000000000
O      -2.837504000000000     -0.084210000000000     -2.115241000000000
H      -4.886561000000000     -4.498938000000000      0.154639000000000
H      -2.667866000000000     -5.586101000000000     -1.273768000000000
C      -5.163269000000000     -5.070492000000000     -1.823696000000000
N      -1.223609000000000     -5.010562000000000      0.893639000000000
H      -0.562044000000000     -0.199384000000000     -2.145993000000000
H      -0.657198000000000     -5.243655000000000      0.093950000000000
O      -4.626179000000000     -5.389007000000000     -2.867586000000000
C      -6.676202000000000     -5.061521000000000     -1.659117000000000
H      -7.080655000000000     -5.955752000000000     -2.143134000000000
H      -6.992630000000000     -5.027795000000000     -0.611294000000000
H      -7.076473000000000     -4.183197000000000     -2.180424000000000
C      -0.636268000000000     -5.068536000000000      2.220002000000000
H      -1.099562000000000     -5.863415000000000      2.817307000000000
H       0.434862000000000     -5.266214000000000      2.122165000000000
H      -0.781493000000000     -4.117053000000000      2.743960000000000
