27
Energy: -722.781252734
N      -4.457054000000000     -4.714250000000000     -0.763069000000000
C      -3.016681000000000     -4.715140000000000     -0.798614000000000
C      -2.520032000000000     -4.679445000000000      0.659083000000000
O      -3.279240000000000     -4.474923000000000      1.587450000000000
C      -2.452385000000000     -3.525322000000000     -1.625962000000000
C      -2.763306000000000     -2.194290000000000     -1.029687000000000
C      -1.903124000000000     -1.026675000000000     -1.139540000000000
O      -0.746398000000000     -1.261079000000000     -1.797074000000000
O      -2.172416000000000      0.066365000000000     -0.692118000000000
H      -4.876310000000000     -4.565732000000000      0.145747000000000
H      -2.673383000000000     -5.638778000000000     -1.284971000000000
C      -5.189405000000000     -5.105023000000000     -1.838987000000000
N      -1.195734000000000     -4.871709000000000      0.828475000000000
H      -0.262294000000000     -0.427343000000000     -1.820589000000000
H      -0.611515000000000     -5.028333000000000      0.023086000000000
O      -4.666397000000000     -5.394350000000000     -2.899024000000000
C      -6.696001000000000     -5.159712000000000     -1.637651000000000
H      -7.015685000000000     -6.205435000000000     -1.718062000000000
H      -7.015694000000000     -4.756240000000000     -0.671419000000000
H      -7.174541000000000     -4.600646000000000     -2.448654000000000
C      -0.587272000000000     -4.807459000000000      2.145386000000000
H      -1.073151000000000     -5.518087000000000      2.823580000000000
H       0.473060000000000     -5.059648000000000      2.056109000000000
H      -0.687674000000000     -3.802059000000000      2.572197000000000
H      -1.371796000000000     -3.633789000000000     -1.776656000000000
H      -2.915918000000000     -3.613996000000000     -2.623630000000000
H      -3.698566000000000     -2.029969000000000     -0.500553000000000
