32
Energy: -668.152547807
N      -1.848850000000000      0.794920000000000      0.740727000000000
C      -1.504226000000000     -0.090343000000000     -0.345864000000000
C      -1.630401000000000     -1.531752000000000      0.176401000000000
O      -1.714141000000000     -1.785021000000000      1.363924000000000
C      -0.084652000000000      0.186558000000000     -0.905876000000000
C       1.048003000000000     -0.124214000000000      0.084159000000000
C       2.427520000000000      0.249576000000000     -0.478552000000000
C       3.565330000000000     -0.075466000000000      0.496589000000000
N       4.854374000000000      0.251226000000000     -0.053200000000000
H       5.560436000000000      0.027583000000000      0.656884000000000
H      -1.891194000000000      0.374726000000000      1.659042000000000
C      -2.286206000000000      2.060250000000000      0.518203000000000
N      -1.603275000000000     -2.494494000000000     -0.771814000000000
H      -1.602054000000000     -2.224696000000000     -1.742476000000000
O      -2.338668000000000      2.541699000000000     -0.598006000000000
C      -2.718876000000000      2.837931000000000      1.753760000000000
H      -2.250284000000000      3.826988000000000      1.723167000000000
H      -3.805379000000000      2.980280000000000      1.708092000000000
H      -2.460906000000000      2.333978000000000      2.691008000000000
C      -1.705010000000000     -3.901029000000000     -0.429116000000000
H      -2.708534000000000     -4.149470000000000     -0.060029000000000
H      -1.489121000000000     -4.498284000000000     -1.319864000000000
H      -0.981898000000000     -4.146829000000000      0.355983000000000
H      -2.225548000000000      0.068972000000000     -1.159315000000000
H       0.057003000000000     -0.399722000000000     -1.825663000000000
H      -0.062451000000000      1.245374000000000     -1.195115000000000
H       1.034749000000000     -1.195431000000000      0.338832000000000
H       0.870732000000000      0.422108000000000      1.022299000000000
H       2.612263000000000     -0.286423000000000     -1.420567000000000
H       2.462709000000000      1.322605000000000     -0.713398000000000
H       3.540096000000000     -1.150772000000000      0.765068000000000
H       3.415416000000000      0.462140000000000      1.453640000000000
