33
Energy: -6.685096777281932E+02
 N        -7.826620081554      0.918097911688      0.078837258577
 C        -6.387360382532      0.856226273813      0.196194990992
 C        -6.051297327638      0.851211158384      1.695752567896
 O        -6.738961258227      1.467806152374      2.490165128237
 C        -5.678619625752      2.042735538078     -0.512066093937
 C        -6.128788112679      3.416341494997      0.008609911515
 C        -5.486769819262      4.553494104812     -0.813989208106
 C        -5.923317597338      5.889030775098     -0.328529923526
 N        -5.585733747395      7.064150427226     -1.162239348978
 H        -6.141027018046      7.884839820795     -0.897504398068
 H        -5.772137170778      6.866747567165     -2.152594694807
 H        -8.340373518979      1.090417448693      0.932024862141
 C        -8.457502273629      0.672209356795     -1.102310016106
 N        -4.934411444448      0.183875431772      2.047845043773
 H        -4.486509856450     -0.409667587570      1.367165420217
 O        -7.832680847933      0.485541404210     -2.128981183550
 H        -4.592298166308      7.328801289228     -1.090099092362
 C        -4.498211496285      0.112135178569      3.433392897478
 H        -5.177310608711     -0.507604131307      4.032062382364
 H        -3.492589414262     -0.316045783408      3.464999896618
 H        -4.479997158874      1.117361867661      3.866248080884
 C        -9.975607176970      0.620173269161     -1.047398104563
 H       -10.378173571889      1.095267352592     -1.946870223854
 H       -10.280842075385     -0.433788912524     -1.060323987876
 H       -10.390721316841      1.094223127817     -0.151629454913
 H        -6.032460620105     -0.065336518452     -0.283690054058
 H        -4.592413858353      1.926972344520     -0.387431365063
 H        -5.909870853901      1.947837099213     -1.580662644908
 H        -5.868564525798      3.533302521627      1.068930166643
 H        -7.220829156728      3.493272547189     -0.064594429418
 H        -4.382867285763      4.476159638520     -0.748009719863
 H        -5.737510538294      4.436193758236     -1.881710880300
 H        -6.119885142897      6.139978003028      0.710839546921
