27
Energy: -7.227990414704901E+02
 N         1.488216549509      1.095445021107      0.024962635623
 C         0.790568980285     -0.064585146348      0.253654252884
 C         1.617677328663     -1.252613577198     -0.027168698033
 O         2.784893020504     -1.129968340125     -0.397361119807
 C        -0.643103459890     -0.084086801343      0.695536692196
 H        -0.866752744283     -1.028764953382      1.202619952923
 H        -0.818723475043      0.712317366192      1.425047966722
 C        -1.633702401248      0.102574014381     -0.474388107598
 H        -1.593732835308      1.129947455859     -0.853174196262
 H        -1.390399469948     -0.563152318688     -1.315535584071
 C        -3.056627209656     -0.213037584631     -0.057767979236
 O        -3.942568921697      0.171558055740     -0.984997120695
 O        -3.383764605069     -0.761415928138      0.959836842748
 H         2.450121037516      0.902849929609     -0.247945643417
 C         1.078216994756      2.407271123934      0.100796884164
 N         1.049717145231     -2.478979346063      0.124509697199
 H        -4.823322648916     -0.070737071717     -0.671438518590
 H         0.110751770838     -2.561751134637      0.473673898269
 O        -0.061123175877      2.735068999217      0.357852614743
 C         2.189779195355      3.416956755649     -0.146003183679
 H         1.734180824152      4.378320609528     -0.395133477602
 H         2.785026861823      3.534117053658      0.769322436835
 H         2.860960139114      3.100524583053     -0.952974957952
 C         1.821776475127     -3.681360676934     -0.116286553924
 H         2.677251621042     -3.744862328520      0.568363391274
 H         1.173564046016     -4.549945905806      0.031410070213
 H         2.208795957005     -3.688307854397     -1.142206194923
