27
Energy: -722.7990683410001
N       1.484752000000000      1.102836000000000      0.038732000000000
C       0.784314000000000     -0.057533000000000      0.256201000000000
C       1.614376000000000     -1.245066000000000     -0.021284000000000
O       2.784919000000000     -1.121331000000000     -0.379694000000000
C      -0.651628000000000     -0.080474000000000      0.690407000000000
H      -0.874686000000000     -1.025839000000000      1.196610000000000
H      -0.832791000000000      0.715522000000000      1.418908000000000
C      -1.637448000000000      0.103111000000000     -0.484038000000000
H      -1.598600000000000      1.130458000000000     -0.862779000000000
H      -1.388848000000000     -0.562294000000000     -1.323920000000000
C      -3.061175000000000     -0.216487000000000     -0.073100000000000
O      -3.944739000000000      0.168842000000000     -1.002218000000000
O      -3.390544000000000     -0.768348000000000      0.941900000000000
H       2.448233000000000      0.910746000000000     -0.226558000000000
C       1.068009000000000      2.411973000000000      0.103315000000000
N       1.043943000000000     -2.471227000000000      0.119708000000000
H      -4.826078000000000     -0.075945000000000     -0.692254000000000
H       0.100238000000000     -2.554320000000000      0.455901000000000
O      -0.075409000000000      2.735408000000000      0.350752000000000
C       2.154843000000000      3.443294000000000     -0.161062000000000
H       1.811827000000000      4.104482000000000     -0.964674000000000
H       2.276786000000000      4.053560000000000      0.741629000000000
H       3.119789000000000      3.004713000000000     -0.433566000000000
C       1.815826000000000     -3.673484000000000     -0.122444000000000
H       2.669891000000000     -3.738132000000000      0.563701000000000
H       1.167092000000000     -4.542078000000000      0.022751000000000
H       2.204784000000000     -3.679002000000000     -1.147717000000000
