26
Energy: -722.2464214149999
N      -3.753764000000000     -0.033479000000000     -0.020416000000000
C      -2.312372000000000     -0.158599000000000     -0.135039000000000
C      -1.775271000000000     -0.277902000000000      1.311531000000000
O      -2.503446000000000     -0.738859000000000      2.188875000000000
C      -1.670466000000000      0.950094000000000     -1.015708000000000
C      -1.656814000000000      2.334229000000000     -0.436829000000000
C      -0.387229000000000      2.983041000000000      0.048886000000000
O       0.591478000000000      2.200383000000000      0.248956000000000
O      -0.414959000000000      4.214241000000000      0.203259000000000
H      -4.089504000000000     -0.020493000000000      0.934015000000000
C      -4.605331000000000     -0.351820000000000     -1.017951000000000
N      -0.504779000000000      0.083712000000000      1.513700000000000
H      -0.039542000000000      0.776249000000000      0.881304000000000
O      -4.247225000000000     -0.663998000000000     -2.141445000000000
C      -6.089663000000000     -0.266325000000000     -0.664450000000000
H      -6.575599000000000     -1.192266000000000     -0.990994000000000
H      -6.271787000000000     -0.107463000000000      0.403902000000000
H      -6.530120000000000      0.563384000000000     -1.230438000000000
C       0.044129000000000      0.011805000000000      2.853047000000000
H       0.071943000000000     -1.026626000000000      3.207864000000000
H       1.058490000000000      0.421018000000000      2.822015000000000
H      -0.559284000000000      0.593861000000000      3.563941000000000
H      -2.093496000000000     -1.121250000000000     -0.625047000000000
H      -0.635978000000000      0.650938000000000     -1.224504000000000
H      -2.227422000000000      0.923333000000000     -1.963205000000000
H      -2.568908000000000      2.929951000000000     -0.424281000000000
