33
Energy: -6.685455534014483E+02
 N        -7.693030688064      0.940624451640     -0.057290458626
 C        -6.402231167160      1.540384305044     -0.309872414609
 C        -5.653816024329      1.890786803470      0.992083023236
 O        -4.862272559091      2.841689356578      1.050099702632
 C        -6.445967105280      2.741745507840     -1.271774408017
 C        -7.218276471778      3.980517802407     -0.705103213359
 C        -6.591150806197      5.282518439879     -1.108491987127
 C        -5.594092303063      5.955136199557     -0.216956820065
 N        -4.306845813273      5.148821724194     -0.108606045987
 H        -6.784054671340      5.707764160830     -2.090776622304
 H        -5.964249898026      6.029620480299      0.814306981771
 H        -5.323981434165      6.953618980690     -0.571873498275
 H        -3.641865733447      5.600826030564      0.523692372423
 H        -3.858552769155      5.058233817588     -1.022277145886
 H        -8.434659862130      1.515071751689      0.316793264146
 C        -8.033052915254     -0.269300477466     -0.640620826302
 N        -5.858377683492      1.093705070287      2.033809160894
 H        -6.520195219217      0.339320156397      1.919620419659
 O        -7.215828448629     -0.925058419581     -1.240746255553
 H        -4.516336740042      4.175208381713      0.276797351073
 C        -5.142864294750      1.239139643546      3.292249809947
 H        -5.473360234682      2.138330058971      3.825546249604
 H        -5.341062413876      0.360442865044      3.910578341776
 H        -4.067047613340      1.316636625434      3.104050282373
 C        -9.470972795840     -0.715154500706     -0.450976903022
 H        -9.934226436934     -0.807530604705     -1.440133454297
 H        -9.465026716254     -1.712558236361      0.002027148135
 H       -10.063993030490     -0.034157088274      0.168001754002
 H        -5.812572150733      0.744510547178     -0.790830812773
 H        -5.410075645311      3.008718113677     -1.510430996470
 H        -6.901240411464      2.410751809285     -2.211609180608
 H        -7.240119170160      3.925453875773      0.393457072079
 H        -8.257715773034      3.948857367519     -1.055017890470
