33
Energy: -6.685177598560896E+02
 N        -7.852159225999      0.802775355791      0.167862248213
 C        -6.400898039320      0.825449629795      0.147530076791
 C        -5.935745948476      0.860845424547      1.623268100102
 O        -6.536746965511      1.531457904083      2.442669408441
 C        -5.836164071218      2.039310133600     -0.550283427477
 C        -6.513286467557      3.364751890135     -0.381411523690
 C        -5.568126209243      4.546751495344     -0.675105980087
 C        -6.323913504417      5.868102460848     -0.545765858751
 N        -5.398856921377      7.036182335300     -0.825612163478
 H        -5.117463625959      1.894363388358     -1.353988411227
 H        -6.909308137146      3.440992498115      0.642513232192
 H        -7.379118207069      3.419814701076     -1.067592185599
 H        -5.162110969719      4.447847894526     -1.693134834779
 H        -4.724436291994      4.526035651805      0.030095758842
 H        -6.716522937015      6.020250512472      0.465419075109
 H        -7.145765077685      5.946606728473     -1.265539734051
 H        -5.881558893518      7.936791708978     -0.749855559314
 H        -5.005151609349      6.967415217251     -1.769387243353
 H        -8.302004536537      0.850253830646      1.070930643086
 C        -8.575091260180      0.808948208028     -0.985067927082
 N        -4.820535058839      0.162062189324      1.903904425069
 H        -4.430018056890     -0.439635215621      1.196018597330
 O        -8.035561431827      0.884341306252     -2.072349072274
 H        -4.614285288393      7.041548055075     -0.166123858501
 C        -4.256107959208      0.131283723911      3.243273154470
 H        -4.868441826073     -0.479410961987      3.918472596219
 H        -3.247098338445     -0.287108413319      3.192046690020
 H        -4.210012795487      1.148237429682      3.645563486288
 C       -10.083422157916      0.699639585910     -0.828393658081
 H       -10.392444663031     -0.287747276383     -1.192006283328
 H       -10.422095327887      0.819261830222      0.205797248206
 H       -10.558356249492      1.451538487536     -1.466749624984
 H        -6.025964947224     -0.077215709774     -0.351255394322
