32
Energy: -668.178547153
N      -2.022971000000000      0.688725000000000      0.704804000000000
C      -1.342970000000000     -0.272526000000000     -0.003068000000000
C      -2.021907000000000     -1.577467000000000      0.068823000000000
O      -3.098139000000000     -1.699479000000000      0.653772000000000
C      -0.048781000000000      0.000227000000000     -0.711140000000000
C       1.191092000000000     -0.076212000000000      0.215336000000000
C       2.485006000000000      0.265359000000000     -0.537249000000000
C       3.725013000000000      0.195771000000000      0.362705000000000
N       4.929522000000000      0.519293000000000     -0.405380000000000
H      -0.084519000000000      0.999257000000000     -1.158216000000000
H       0.065033000000000     -0.714957000000000     -1.537371000000000
H       1.263749000000000     -1.084479000000000      0.651231000000000
H       1.046246000000000      0.630727000000000      1.042402000000000
H       2.396377000000000      1.282003000000000     -0.950747000000000
H       2.630582000000000     -0.414910000000000     -1.388993000000000
H       3.837377000000000     -0.827954000000000      0.746140000000000
H       3.570045000000000      0.854498000000000      1.236151000000000
H       5.761077000000000      0.445018000000000      0.171390000000000
H       4.886569000000000      1.475378000000000     -0.745724000000000
H      -2.889452000000000      0.323409000000000      1.094881000000000
C      -1.700042000000000      2.001425000000000      0.964659000000000
N      -1.422318000000000     -2.639080000000000     -0.537301000000000
H      -0.502002000000000     -2.536836000000000     -0.928388000000000
O      -0.671093000000000      2.525219000000000      0.592942000000000
C      -2.759049000000000      2.740551000000000      1.772354000000000
H      -2.411244000000000      3.761859000000000      1.941614000000000
H      -3.713681000000000      2.762132000000000      1.231349000000000
H      -2.926098000000000      2.244868000000000      2.737316000000000
C      -2.021705000000000     -3.956295000000000     -0.473915000000000
H      -3.035851000000000     -3.931694000000000     -0.889547000000000
H      -1.409944000000000     -4.650347000000000     -1.057944000000000
H      -2.089655000000000     -4.313402000000000      0.562223000000000
