26
Energy: -7.222416045918131E+02
 N        -3.925234696430     -0.082610655297      0.036607350474
 C        -2.466300584438     -0.036750490273     -0.080354911040
 C        -1.926785377510     -0.145371721541      1.371801615760
 O        -2.655006821760     -0.547036060974      2.278642717197
 C        -1.969081408513      1.143739255960     -0.876676273848
 H        -1.830250041164      0.974339052892     -1.942220288053
 C        -1.700808794637      2.506212339994     -0.330966772746
 H        -2.210850496526      3.279282100357     -0.919666476037
 H        -2.047069283189      2.591472394823      0.710118923714
 C        -0.156282334082      2.899446934966     -0.335112143931
 O         0.632153633559      1.990898586146      0.034282787573
 O         0.109537507716      4.051471583980     -0.677072987434
 H        -4.261397411882     -0.126490761142      0.990529145323
 C        -4.727548419579     -0.446478939037     -0.983757718181
 N        -0.642083342433      0.171783675600      1.530390238740
 H        -0.142516189378      0.758356080514      0.816874465175
 O        -4.329907269172     -0.668576134934     -2.114809229370
 C        -6.213873190967     -0.557148733430     -0.640827214372
 H        -6.769476222181      0.109255601032     -1.310608282080
 H        -6.540504211599     -1.584300590417     -0.841401231644
 H        -6.438843216732     -0.297593609355      0.399209027163
 C        -0.037784813981      0.105326458473      2.843378762595
 H        -0.003143632080     -0.930324227727      3.208361063444
 H         0.979924170513      0.500267596831      2.764210731729
 H        -0.602845874213      0.698343786354      3.576581449702
 H        -2.152219679341     -0.956465523794     -0.597195749853
