27
Energy: -7.227689240522149E+02
 N        -4.403943987551     -4.628391761238     -0.670331958622
 C        -2.958432662275     -4.701675426805     -0.623695835751
 C        -2.565473037431     -4.839361219781      0.872795831260
 O        -3.394788233808     -4.849159738336      1.761526669361
 C        -2.283035461465     -3.515603319883     -1.266887312071
 C        -2.568308389899     -2.131445149735     -0.760072457867
 H        -3.605613976504     -2.034692816669     -0.419526793291
 H        -1.924188087948     -1.895006741933      0.109321578267
 C        -2.318276293811     -1.032388399738     -1.777649139221
 O        -1.138662814696     -1.177132978685     -2.399205425928
 O        -3.056915378572     -0.114728229210     -1.998137949418
 H        -4.875552520391     -4.604678850838      0.224548597467
 H        -2.633013576839     -5.610244086815     -1.148996088654
 C        -5.073501870124     -4.899712815071     -1.823473812682
 N        -1.241151934225     -4.943897023532      1.106187887392
 H        -1.042263487319     -0.444481610337     -3.020947122819
 H        -0.605777156334     -4.888881883029      0.325606065117
 O        -4.493357809240     -5.113289018305     -2.869318134824
 C        -6.591805304622     -4.923092885659     -1.717887777951
 H        -7.004284091489     -4.332986436125     -2.542497945311
 H        -6.930555025000     -5.958705342659     -1.842446524067
 H        -6.962063731350     -4.534826989823     -0.763449038625
 C        -0.718635049874     -5.089036204610      2.452254401299
 H        -1.107416740131     -6.001355135317      2.920318670133
 H         0.372333255124     -5.144992832335      2.402650395506
 H        -1.010630461858     -4.234490875677      3.074459619764
 H        -1.599766172369     -3.664179227855     -2.097088398462
