33
Energy: -668.525459205
N      -7.595004000000000      1.422317000000000      0.288299000000000
C      -6.194929000000000      1.056702000000000      0.316057000000000
C      -5.887597000000000      0.622828000000000      1.765335000000000
O      -6.551332000000000      1.041736000000000      2.695131000000000
C      -5.232491000000000      2.203289000000000     -0.113698000000000
C      -5.493635000000000      3.513511000000000      0.565758000000000
C      -5.371710000000000      4.795333000000000     -0.214918000000000
C      -6.620530000000000      4.980999000000000     -1.098545000000000
N      -6.429593000000000      6.137745000000000     -2.064917000000000
H      -4.481773000000000      4.749571000000000     -0.866379000000000
H      -5.253185000000000      5.655746000000000      0.457036000000000
H      -7.506651000000000      5.220957000000000     -0.502290000000000
H      -6.829918000000000      4.092753000000000     -1.706803000000000
H      -7.256663000000000      6.269170000000000     -2.654895000000000
H      -5.631667000000000      5.960508000000000     -2.682394000000000
H      -8.077992999999999      1.333211000000000      1.173360000000000
C      -8.254417000000000      1.867301000000000     -0.802270000000000
N      -4.830169000000000     -0.195382000000000      1.919286000000000
H      -4.388751000000000     -0.591313000000000      1.104129000000000
O      -7.688577000000000      2.111531000000000     -1.860876000000000
H      -6.249395000000000      7.015367000000000     -1.568345000000000
C      -4.416114000000000     -0.657819000000000      3.235574000000000
H      -5.176949000000000     -1.311508000000000      3.678942000000000
H      -3.477320000000000     -1.208797000000000      3.135023000000000
H      -4.266156000000000      0.198136000000000      3.901616000000000
C      -9.757585000000001      2.030085000000000     -0.639353000000000
H     -10.096014000000000      2.869706000000000     -1.253221000000000
H     -10.242571999999999      1.121882000000000     -1.020008000000000
H     -10.062690999999999      2.174929000000000      0.402340000000000
H      -6.021709000000000      0.213565000000000     -0.367437000000000
H      -4.203614000000000      1.862808000000000      0.099008000000000
H      -5.310745000000000      2.313816000000000     -1.201466000000000
H      -5.769574000000000      3.542740000000000      1.617883000000000
