27
Energy: -722.774849438
N      -4.552822000000000     -4.799778000000000     -0.657929000000000
C      -3.107359000000000     -4.911250000000000     -0.764944000000000
C      -2.581125000000000     -4.849770000000000      0.701696000000000
O      -3.288050000000000     -5.216187000000000      1.624116000000000
C      -2.497249000000000     -3.899086000000000     -1.688676000000000
H      -1.880680000000000     -4.246512000000000     -2.512307000000000
C      -2.772958000000000     -2.433160000000000     -1.561279000000000
H      -3.254957000000000     -2.025176000000000     -2.462460000000000
H      -3.461356000000000     -2.225413000000000     -0.728584000000000
C      -1.510250000000000     -1.619231000000000     -1.307541000000000
O      -1.695307000000000     -0.319012000000000     -1.544379000000000
O      -0.457823000000000     -2.060913000000000     -0.923478000000000
H      -4.910602000000000     -4.933890000000000      0.280404000000000
H      -2.840992000000000     -5.913326000000000     -1.136229000000000
C      -5.360562000000000     -4.963990000000000     -1.740367000000000
N      -1.319244000000000     -4.419786000000000      0.861046000000000
H      -0.871242000000000      0.144202000000000     -1.344158000000000
H      -0.850216000000000     -3.967372000000000      0.085151000000000
O      -4.925324000000000     -5.049142000000000     -2.871867000000000
C      -6.853763000000000     -5.021169000000000     -1.444253000000000
H      -7.364640000000000     -4.303070000000000     -2.094380000000000
H      -7.216007000000000     -6.023025000000000     -1.703523000000000
H      -7.094729000000000     -4.808141000000000     -0.397904000000000
C      -0.719980000000000     -4.352066000000000      2.180742000000000
H      -0.687457000000000     -5.348053000000000      2.637408000000000
H       0.297397000000000     -3.964070000000000      2.081547000000000
H      -1.298854000000000     -3.694347000000000      2.841586000000000
