33
Energy: -668.8189674040001
N      -1.860780000000000      0.810798000000000      0.718136000000000
C      -1.512136000000000     -0.071179000000000     -0.369968000000000
C      -1.675481000000000     -1.513914000000000      0.138850000000000
O      -1.799244000000000     -1.770858000000000      1.321986000000000
C      -0.076929000000000      0.183157000000000     -0.900093000000000
C       1.031135000000000     -0.156687000000000      0.108110000000000
C       2.426258000000000      0.209722000000000     -0.420887000000000
C       3.543006000000000     -0.137113000000000      0.571777000000000
N       4.851060000000000      0.206328000000000      0.010398000000000
H      -2.215504000000000      0.108549000000000     -1.195083000000000
H      -0.029822000000000      1.243587000000000     -1.179325000000000
H       0.071238000000000     -0.396956000000000     -1.822731000000000
H       1.001613000000000     -1.231418000000000      0.343956000000000
H       0.841667000000000      0.376772000000000      1.050848000000000
H       2.460787000000000      1.288968000000000     -0.638881000000000
H       2.625564000000000     -0.310647000000000     -1.368501000000000
H       3.532348000000000     -1.219553000000000      0.760724000000000
H       3.333408000000000      0.361282000000000      1.536033000000000
H       5.600621000000000     -0.052848000000000      0.643122000000000
H       4.921826000000000      1.207761000000000     -0.143783000000000
H      -1.930719000000000      0.381410000000000      1.630564000000000
C      -2.252118000000000      2.091421000000000      0.502628000000000
N      -1.630027000000000     -2.469922000000000     -0.816176000000000
H      -1.598835000000000     -2.189743000000000     -1.783638000000000
O      -2.273558000000000      2.586232000000000     -0.609125000000000
C      -2.651054000000000      2.881733000000000      1.741646000000000
H      -3.648215000000000      3.303170000000000      1.574552000000000
H      -2.652135000000000      2.282139000000000      2.657755000000000
H      -1.951249000000000      3.717765000000000      1.856781000000000
C      -1.753413000000000     -3.879208000000000     -0.494495000000000
H      -2.801522000000000     -4.168099000000000     -0.338369000000000
H      -1.333750000000000     -4.472972000000000     -1.312332000000000
H      -1.199727000000000     -4.085467000000000      0.426675000000000
