34
Energy: -669.1844933910002
N      -7.820520000000000      0.886521000000000      0.007393000000000
C      -6.384151000000000      0.858779000000000      0.165033000000000
C      -6.089462000000000      0.868898000000000      1.673329000000000
O      -6.823980000000000      1.457328000000000      2.446827000000000
C      -5.689583000000000      2.060490000000000     -0.529695000000000
C      -6.107160000000000      3.422279000000000      0.049123000000000
C      -5.617272000000000      4.580223000000000     -0.841362000000000
C      -6.020713000000000      5.924690000000000     -0.238947000000000
N      -5.580394000000000      7.063037000000000     -1.139755000000000
H      -5.996302000000000     -0.055734000000000     -0.302252000000000
H      -5.956496000000000      1.997260000000000     -1.591917000000000
H      -4.600579000000000      1.935852000000000     -0.449737000000000
H      -5.712003000000000      3.541971000000000      1.067139000000000
H      -7.202172000000000      3.462009000000000      0.128457000000000
H      -6.053762000000000      4.475587000000000     -1.846310000000000
H      -4.522633000000000      4.533286000000000     -0.947772000000000
H      -5.550290000000000      6.101918000000000      0.733983000000000
H      -7.106521000000000      6.019324000000000     -0.131598000000000
H      -5.826738000000000      7.978761000000000     -0.751843000000000
H      -6.017058000000000      6.982886000000000     -2.063563000000000
H      -8.361870000000000      1.048442000000000      0.845949000000000
C      -8.414541000000000      0.569986000000000     -1.178031000000000
N      -4.955043000000000      0.250978000000000      2.058644000000000
H      -4.465259000000000     -0.326671000000000      1.393209000000000
O      -7.758581000000000      0.350799000000000     -2.177603000000000
H      -4.565269000000000      7.041604000000000     -1.279042000000000
C      -4.561186000000000      0.193881000000000      3.457705000000000
H      -5.247503000000000     -0.436443000000000      4.036645000000000
H      -3.549290000000000     -0.215193000000000      3.522712000000000
H      -4.575209000000000      1.200587000000000      3.887538000000000
C      -9.935541000000001      0.537402000000000     -1.160389000000000
H     -10.280450999999999      0.016754000000000     -2.056831000000000
H     -10.319743000000001      0.033712000000000     -0.265845000000000
H     -10.329024000000000      1.562115000000000     -1.172551000000000
