32
Energy: -668.153123831
N      -1.801874000000000      0.722097000000000      0.722027000000000
C      -1.530168000000000     -0.141596000000000     -0.400159000000000
C      -1.631676000000000     -1.590110000000000      0.106486000000000
O      -1.611050000000000     -1.859364000000000      1.293923000000000
C      -0.138607000000000      0.127076000000000     -1.029631000000000
C       1.010031000000000     -0.140323000000000     -0.103758000000000
C       2.415900000000000      0.146857000000000     -0.535529000000000
C       3.424737000000000      0.089892000000000      0.620637000000000
N       4.783308000000000      0.303707000000000      0.119618000000000
H       2.462170000000000      1.140302000000000     -1.015315000000000
H       2.746245000000000     -0.568625000000000     -1.311728000000000
H       3.386583000000000     -0.909036000000000      1.075904000000000
H       3.119755000000000      0.813791000000000      1.396848000000000
H       5.465014000000000      0.215663000000000      0.865934000000000
H       4.879756000000000      1.238791000000000     -0.265492000000000
H      -1.777000000000000      0.282597000000000      1.632072000000000
C      -2.163080000000000      2.017672000000000      0.556716000000000
N      -1.712725000000000     -2.537420000000000     -0.851654000000000
H      -1.738035000000000     -2.256848000000000     -1.818658000000000
O      -2.246099000000000      2.532707000000000     -0.543465000000000
C      -2.467733000000000      2.792098000000000      1.831609000000000
H      -1.840017000000000      3.689664000000000      1.848525000000000
H      -3.513884000000000      3.117209000000000      1.794588000000000
H      -2.300091000000000      2.209999000000000      2.743730000000000
C      -1.738571000000000     -3.949746000000000     -0.519048000000000
H      -2.611794000000000     -4.185345000000000      0.100901000000000
H      -1.785949000000000     -4.528921000000000     -1.445619000000000
H      -0.837090000000000     -4.230080000000000      0.038721000000000
H      -2.291448000000000      0.038302000000000     -1.171082000000000
H      -0.044731000000000     -0.481562000000000     -1.949665000000000
H      -0.136588000000000      1.174842000000000     -1.368440000000000
H       0.834014000000000     -0.687387000000000      0.823084000000000
