33
Energy: -6.685179957443028E+02
 N        -7.844643363087      0.894478416400     -0.004635225587
 C        -6.410670871089      0.843118758267      0.159436572188
 C        -6.114965996368      0.972047658234      1.662394307708
 O        -6.834515781252      1.640946298434      2.383294548946
 C        -5.692715486517      1.973655315952     -0.626185199075
 C        -6.127999089991      3.345543982331     -0.212947660187
 C        -5.734077047813      4.542567983463     -1.032495909347
 C        -5.782390514380      5.809320041870     -0.174826400766
 N        -5.496296630355      7.034480090088     -1.021669891676
 H        -6.901065236802      3.457665567130      0.546604613433
 H        -6.416941829059      4.661544449139     -1.897750871665
 H        -4.722838906794      4.405401509680     -1.447276749229
 H        -5.033410104627      5.797453806627      0.622910795723
 H        -6.773050354160      5.963436734472      0.265727477373
 H        -5.521989192221      7.896482471447     -0.468632073776
 H        -6.184111140412      7.122532414586     -1.776511346482
 H        -8.386288013151      1.132861796218      0.814776085738
 C        -8.438423529877      0.544336961858     -1.179759023397
 N        -4.997770530752      0.355125864336      2.094738836311
 H        -4.525043255286     -0.283323302080      1.473702917356
 O        -7.780214735869      0.257652109571     -2.161085642341
 H        -4.570998409446      6.967227201225     -1.457037740236
 C        -4.586247246422      0.405205910864      3.488393145927
 H        -5.203509168928     -0.254550239193      4.111398486857
 H        -3.539259001449      0.097334391233      3.560787668128
 H        -4.693585959450      1.428802890500      3.859656708516
 C        -9.957925618206      0.510973195944     -1.170133683189
 H       -10.321947707487      0.801719627052     -2.159396657114
 H       -10.279463814026     -0.521150442214     -0.980225663007
 H       -10.392505326668      1.158115784640     -0.400510968031
 H        -6.040176353807     -0.112749574514     -0.232923036041
 H        -4.601381867190      1.859763318060     -0.504009953237
 H        -5.904280917061      1.798623008381     -1.693853469818
