27
Energy: -722.903559056
N      -3.801313000000000     -0.068335000000000      0.025935000000000
C      -2.355264000000000     -0.160921000000000     -0.091121000000000
C      -1.816600000000000     -0.219905000000000      1.359419000000000
O      -2.539531000000000     -0.642251000000000      2.261354000000000
C      -1.748989000000000      0.932000000000000     -0.996501000000000
H      -0.712625000000000      0.647056000000000     -1.215188000000000
H      -2.302081000000000      0.879505000000000     -1.941244000000000
C      -1.758003000000000      2.372051000000000     -0.430739000000000
H      -2.296554000000000      3.058742000000000     -1.091409000000000
H      -2.282772000000000      2.403069000000000      0.537701000000000
C      -0.335069000000000      2.981763000000000     -0.179501000000000
O       0.569475000000000      2.160074000000000      0.139496000000000
O      -0.235619000000000      4.206843000000000     -0.290628000000000
H      -4.136343000000000     -0.049923000000000      0.980574000000000
H      -2.115544000000000     -1.136862000000000     -0.543308000000000
C      -4.647693000000000     -0.424222000000000     -0.963042000000000
N      -0.547843000000000      0.156538000000000      1.540912000000000
H      -0.080716000000000      0.811095000000000      0.867785000000000
O      -4.287274000000000     -0.749116000000000     -2.082141000000000
C      -6.132943000000000     -0.372739000000000     -0.605010000000000
H      -6.609042000000000      0.395632000000000     -1.225699000000000
H      -6.582694000000000     -1.338445000000000     -0.861779000000000
H      -6.317420000000000     -0.147432000000000      0.450909000000000
C       0.013069000000000      0.137541000000000      2.876439000000000
H       0.045104000000000     -0.886094000000000      3.272093000000000
H       1.027569000000000      0.544112000000000      2.820331000000000
H      -0.583391000000000      0.746375000000000      3.570928000000000
