32
Energy: -6.681632607977780E+02
 N         1.625439856274     -0.804944329535      0.364854128285
 C         1.107420384528      0.196194474151     -0.536572731872
 C         1.127352199374      1.541254507580      0.210204346253
 O         1.296554007652      1.610866386346      1.413434037933
 C        -0.316294581572     -0.149863674357     -1.044736759298
 C        -1.391398354553     -0.113552398487      0.051021714052
 C        -2.763624385264     -0.580680734094     -0.463899997858
 C        -3.816956395363     -0.530108308356      0.600827547166
 N        -5.138272388268     -0.777357139812      0.244122269146
 H        -3.552477464614     -0.612139280629      1.652308142531
 H        -5.768457016164     -1.071118956099      0.975124666160
 H        -5.305309471369     -1.249451784485     -0.634907999630
 H         1.700057096152     -0.529814715178      1.334803135654
 C         2.162967690111     -1.964737101383     -0.088189053138
 N         0.908059144177      2.630643625073     -0.559165479247
 H         0.839380368541      2.516585560775     -1.557853268052
 O         2.171006173270     -2.259017830157     -1.269317558330
 C         2.767147958810     -2.873858753610      0.973506949413
 H         2.394840796268     -3.890952043647      0.813195774086
 H         3.855009885188     -2.890363221847      0.833442517849
 H         2.539625510746     -2.551710482147      1.995032651602
 C         0.880627677843      3.967387569560      0.003716853608
 H         1.893466541487      4.333784371504      0.219103538957
 H         0.394361790003      4.644381924175     -0.705284375446
 H         0.315142061681      3.952318803318      0.941023053581
 H         1.774522928201      0.252513866220     -1.407902931045
 H        -0.584357149228      0.544415484868     -1.854914056200
 H        -0.252268190858     -1.152378113627     -1.489300822934
 H        -1.489933416183      0.905244019313      0.452134269922
 H        -1.079007275014     -0.755700359856      0.886929623026
 H        -3.067482887048      0.054437613711     -1.314339430179
 H        -2.657635003932     -1.605449711999     -0.875475963947
