33
Energy: -668.548491948
N      -7.772586000000000      1.488087000000000      0.391425000000000
C      -6.359775000000000      1.645944000000000      0.724874000000000
C      -5.982052000000000      0.377198000000000      1.534002000000000
O      -6.839109000000000     -0.410742000000000      1.880521000000000
C      -6.084939000000000      2.894448000000000      1.536404000000000
C      -6.165942000000000      4.263946000000000      0.920255000000000
C      -5.142880000000000      4.523851000000000     -0.218196000000000
C      -5.610330000000000      5.627706000000000     -1.177136000000000
N      -6.564953000000000      5.056541000000000     -2.193464000000000
H      -6.026234000000000      5.023387000000000      1.698551000000000
H      -7.187148000000000      4.408861000000000      0.525950000000000
H      -4.954268000000000      3.610028000000000     -0.797985000000000
H      -4.181445000000000      4.824568000000000      0.213217000000000
H      -4.782217000000000      6.081763000000000     -1.729503000000000
H      -6.144799000000000      6.418254000000000     -0.639589000000000
H      -7.161186000000000      5.774403000000000     -2.608552000000000
H      -7.166694000000000      4.286092000000000     -1.784896000000000
H      -8.229913000000000      0.749474000000000      0.920652000000000
C      -8.376552000000000      2.067250000000000     -0.644893000000000
N      -4.677163000000000      0.237580000000000      1.818798000000000
H      -4.035007000000000      0.967894000000000      1.553059000000000
O      -7.791502000000000      2.885603000000000     -1.370705000000000
H      -6.050191000000000      4.610554000000000     -2.956091000000000
C      -4.189743000000000     -0.883033000000000      2.610625000000000
H      -4.568827000000000     -1.821796000000000      2.194355000000000
H      -3.097047000000000     -0.887734000000000      2.579430000000000
H      -4.524695000000000     -0.802779000000000      3.651768000000000
C      -9.813297000000000      1.681000000000000     -0.916172000000000
H     -10.432624000000001      2.584866000000000     -0.886423000000000
H      -9.871657000000001      1.270684000000000     -1.931101000000000
H     -10.200831000000001      0.948530000000000     -0.202878000000000
H      -5.794787000000000      1.656331000000000     -0.217752000000000
H      -6.158175000000000      2.805922000000000      2.619538000000000
