33
Energy: -6.685147209533271E+02
 N        -7.844496305297      0.908729424229      0.040269796921
 C        -6.422137702602      0.885888604472      0.167215453095
 C        -6.088844129904      0.883971492549      1.667772009081
 O        -6.807111986289      1.476566851291      2.451175509281
 C        -5.720161334416      2.109729552764     -0.537848440025
 C        -6.104790885832      3.451972945677      0.099684518009
 C        -5.591204541218      4.575477425004     -0.816080281592
 C        -6.017828772713      5.987315344757     -0.160138101453
 N        -5.601303553789      7.028665480989     -0.993052489187
 H        -6.169623516815      7.339327761683     -1.774028756486
 H        -8.370275712425      1.123697997258      0.879581385345
 C        -8.468720497036      0.606806648574     -1.145619781378
 N        -4.957187417506      0.248745090686      2.021944147362
 H        -4.479207317034     -0.318229784461      1.338289941285
 O        -7.816710021923      0.394101828792     -2.146023523463
 H        -4.650065399900      7.380204292603     -0.962739196997
 C        -4.539327913782      0.163835827208      3.414063899435
 H        -5.217814493946     -0.477265116917      3.989971710683
 H        -3.527586262060     -0.248184933862      3.452429515206
 H        -4.545280209070      1.162711446271      3.861691905030
 C        -9.982193208790      0.532270897819     -1.097581878496
 H       -10.378875005485      0.780179103392     -2.085424704262
 H       -10.270204232267     -0.500602771014     -0.861186290534
 H       -10.412383528519      1.193504060928     -0.337573357329
 H        -6.035200113146     -0.001203248540     -0.352955694191
 H        -4.634367175419      1.956500501155     -0.495536742542
 H        -6.034916327220      2.055827684027     -1.587936529728
 H        -5.674452027540      3.551887387544      1.103268028697
 H        -7.195710703451      3.515283505393      0.200586727177
 H        -4.499137354622      4.567891462367     -0.908842449376
 H        -6.035925615903      4.516925033182     -1.815974374617
 H        -5.526179650655      6.049927729570      0.816438770655
 H        -7.107842083425      5.985509474612     -0.060605725606
