32
Energy: -668.152501954
N       1.453405000000000     -0.926008000000000      0.189846000000000
C       1.113101000000000      0.271989000000000     -0.539692000000000
C       1.465597000000000      1.469917000000000      0.361493000000000
O       1.720233000000000      1.328239000000000      1.543073000000000
C      -0.374791000000000      0.300653000000000     -0.972448000000000
C      -1.366030000000000      0.303117000000000      0.205221000000000
C      -2.794167000000000      0.343275000000000     -0.249488000000000
C      -3.918083000000000     -0.018317000000000      0.674004000000000
N      -5.168928000000000     -0.186783000000000     -0.068953000000000
H      -3.055551000000000      0.887431000000000     -1.158370000000000
H      -4.080572000000000      0.793453000000000      1.407823000000000
H      -3.626570000000000     -0.906622000000000      1.267033000000000
H      -5.944726000000000     -0.370322000000000      0.558413000000000
H      -5.097206000000000     -0.972795000000000     -0.707428000000000
H       1.657002000000000     -0.797668000000000      1.171937000000000
C       1.688935000000000     -2.103414000000000     -0.441083000000000
N       1.448310000000000      2.671391000000000     -0.260605000000000
H       1.236486000000000      2.694612000000000     -1.246129000000000
O       1.554939000000000     -2.233595000000000     -1.643770000000000
C       2.133950000000000     -3.256920000000000      0.447850000000000
H       3.144300000000000     -3.554061000000000      0.143406000000000
H       2.134174000000000     -3.007607000000000      1.514012000000000
H       1.468467000000000     -4.108273000000000      0.268444000000000
C       1.722714000000000      3.922564000000000      0.418587000000000
H       2.518074000000000      4.472810000000000     -0.098515000000000
H       0.825102000000000      4.552522000000000      0.468783000000000
H       2.050495000000000      3.687227000000000      1.434698000000000
H       1.729056000000000      0.307846000000000     -1.449112000000000
H      -0.547715000000000      1.189097000000000     -1.597403000000000
H      -0.541037000000000     -0.577667000000000     -1.608002000000000
H      -1.150396000000000      1.168806000000000      0.862139000000000
H      -1.196733000000000     -0.587091000000000      0.830103000000000
