26
Energy: -722.264899545
N      -3.763979000000000     -0.062109000000000      0.128676000000000
C      -2.419802000000000      0.240419000000000      0.154470000000000
C      -1.827862000000000     -0.180947000000000      1.444657000000000
O      -2.504642000000000     -0.841477000000000      2.250841000000000
C      -1.685563000000000      0.865768000000000     -0.993542000000000
H      -0.638554000000000      0.545508000000000     -0.944903000000000
H      -2.128334000000000      0.491682000000000     -1.921758000000000
C      -1.698705000000000      2.419318000000000     -1.023984000000000
H      -1.553954000000000      2.748611000000000     -2.062065000000000
H      -2.676695000000000      2.809795000000000     -0.717651000000000
C      -0.590987000000000      3.138385000000000     -0.185041000000000
O       0.265518000000000      2.410733000000000      0.386377000000000
O      -0.647916000000000      4.372001000000000     -0.191939000000000
H      -4.027318000000000     -0.514004000000000      1.004171000000000
C      -4.715595000000000      0.088886000000000     -0.837925000000000
N      -0.550663000000000      0.178766000000000      1.669259000000000
H      -0.163533000000000      0.979264000000000      1.120875000000000
O      -4.524578000000000      0.571322000000000     -1.939270000000000
C      -6.099874000000000     -0.425325000000000     -0.440955000000000
H      -6.837682000000000      0.338577000000000     -0.709751000000000
H      -6.318613000000000     -1.324515000000000     -1.031250000000000
H      -6.189456000000000     -0.664976000000000      0.623971000000000
C       0.060797000000000     -0.133289000000000      2.939739000000000
H       0.062683000000000     -1.217638000000000      3.112225000000000
H       1.091463000000000      0.235115000000000      2.923990000000000
H      -0.476260000000000      0.334282000000000      3.779348000000000
