26
Energy: -722.244099342
N      -1.948166000000000      0.132130000000000     -0.293911000000000
C      -0.545779000000000      0.027637000000000      0.067468000000000
C       0.086269000000000      1.390757000000000     -0.314054000000000
O      -0.502490000000000      2.175180000000000     -1.056131000000000
C       0.114801000000000     -1.161120000000000     -0.606154000000000
C       1.589970000000000     -1.343310000000000     -0.746038000000000
H       1.797664000000000     -2.226200000000000     -1.357893000000000
H       2.052501000000000     -0.464822000000000     -1.220042000000000
C       2.344789000000000     -1.545620000000000      0.644587000000000
O       2.327909000000000     -0.542381000000000      1.406290000000000
O       2.871977000000000     -2.640091000000000      0.828668000000000
H      -2.136475000000000      0.879557000000000     -0.950454000000000
C      -2.943436000000000     -0.581670000000000      0.262825000000000
N       1.281885000000000      1.618747000000000      0.227434000000000
H       1.733950000000000      0.835930000000000      0.764322000000000
O      -2.778398000000000     -1.437553000000000      1.115285000000000
C      -4.346159000000000     -0.253749000000000     -0.253417000000000
H      -4.967586000000000      0.042020000000000      0.599745000000000
H      -4.357066000000000      0.540648000000000     -1.007758000000000
H      -4.776382000000000     -1.166945000000000     -0.680970000000000
C       2.023892000000000      2.814724000000000     -0.097853000000000
H       1.514395000000000      3.713150000000000      0.278629000000000
H       3.014166000000000      2.743464000000000      0.363417000000000
H       2.136437000000000      2.929814000000000     -1.185286000000000
H      -0.469622000000000     -0.089951000000000      1.161848000000000
H      -0.516640000000000     -2.049618000000000     -0.620030000000000
